LAMMPS (29 Oct 2020)
#Generated by GS JUNG@ORNL
units           metal
dimension       3
boundary        p p p
atom_style      charge
atom_modify     sort 0 0.0    # turn off sorting of the coordinates
read_data       graphene.data
Reading data file ...
  orthogonal box = (0.0000000 0.0000000 0.0000000) to (7.3785364 8.5200000 33.500000)
  reading atoms ...
  24 atoms

# initialize system

velocity	all create 10.0 87287 loop geom

pair_style      zero 5.2
pair_coeff	* *

neighbor        1.0 bin
neigh_modify    every 1 delay 0 check yes

variable	dt equal 0.001
timestep        0.001
dump		equil all xyz 100 equil.xyz
dump_modify     equil element H He Li Be B C N O

fix             integ   all nve
fix             baros all press/berendsen x 0.0 0.0 1000.0 y 0.0 0.0 1000.0
python          post_force_callback file animpi.py
fix             2 all python/torch 1 post_force post_force_callback
fix_modify      2 energy yes

fix             therm   all langevin  10.0 10.0  0.1 699483
fix	        moment  all momentum 100 linear 1 1 1 angular

thermo      	100
thermo_style 	custom step temp ke pe press pxx pyy pzz xlo xhi ylo yhi
thermo_modify   norm no flush yes
run 		1000
  update every 1 steps, delay 0 steps, check yes
Step Temp KinEng PotEng Press Pxx Pyy Pzz Xlo Xhi Ylo Yhi
0           10  0.029729833   -1122.1109     7967.266    11944.099    11946.358    11.341738            0    7.3785364            0         8.52
Averages over the last 6 of 11 rows, steps 500 to 1000:
Temp KinEng PotEng Press Pxx Pyy Pzz Xlo Xhi Ylo Yhi
8.64296 0.0256954 -1122.19 -3.38649 -61.5353 52.7879 -1.41213 -0.026948 7.40548 -0.031382 8.55138
Loop time of 30.2555 on 1 procs for 1000 steps with 24 atoms

unfix		therm
fix             therm all temp/berendsen  10.0 10.0 0.1
run		1000
Step Temp KinEng PotEng Press Pxx Pyy Pzz Xlo Xhi Ylo Yhi
1000    8.0618073  0.023967619   -1122.1934    12.573521   -106.59343    143.77221   0.54178447 -0.027112146    7.4056486 -0.031190753    8.5511908
Averages over the last 6 of 11 rows, steps 1500 to 2000:
Temp KinEng PotEng Press Pxx Pyy Pzz Xlo Xhi Ylo Yhi
9.601 0.0285436 -1122.19 -0.0836865 11.7065 -12.0782 0.120631 -0.0269729 7.40551 -0.0314975 8.5515
Loop time of 30.0914 on 1 procs for 1000 steps with 24 atoms
